         3
   CG Site                   X                   Y                   Z    Integral Charges
C        -2.3044882287        0.4129723694        1.8383437881        0.5403028727
C         0.6847303006        0.1900726956       -0.4837521541        0.8531308770
C        -1.4861268458       -1.9084626546        0.5665068132       -0.3934337497
         3
   CG Site                   X                   Y                   Z    Integral Charges
C        -2.3213264998        0.4529207027        1.8555271825        0.5451054573
C         0.7402455564        0.2031751881       -0.5523019142        0.8532657623
C        -1.4804537875       -1.9314399354        0.5780508067       -0.3983711898
         3
   CG Site                   X                   Y                   Z    Integral Charges
C        -2.3378180204        0.4928279116        1.8696190400        0.5495738387
C         0.7951493995        0.2139690125       -0.6203167968        0.8531255126
C        -1.4753453898       -1.9533246812        0.5896125611       -0.4026993215
         3
   CG Site                   X                   Y                   Z    Integral Charges
C        -2.3536239225        0.5318391353        1.8813434960        0.5536771417
C         0.8493934162        0.2225815198       -0.6875714208        0.8527851701
C        -1.4707833191       -1.9741361120        0.6011202919       -0.4064623117
         3
   CG Site                   X                   Y                   Z    Integral Charges
C        -2.3686255100        0.5696606067        1.8911420790        0.5574451685
C         0.9029180119        0.2291659293       -0.7538526580        0.8522652984
C        -1.4667397322       -1.9939082830        0.6125231706       -0.4097104669
         3
   CG Site                   X                   Y                   Z    Integral Charges
C        -2.3827860929        0.6062091593        1.8992976523        0.5609226227
C         0.9556500988        0.2338869094       -0.8189539864        0.8515669703
C        -1.4631830913       -2.0126831018        0.6237856719       -0.4124895632
         3
   CG Site                   X                   Y                   Z    Integral Charges
C        -2.3961045873        0.6414906174        1.9060036708        0.5641538501
C         1.0075012057        0.2369138431       -0.8826763279        0.8506845236
C        -1.4600810638       -2.0305060533        0.6348836458       -0.4148384035
         3
   CG Site                   X                   Y                   Z    Integral Charges
C        -2.4085968927        0.6755500952        1.9114000349        0.5671781301
C         1.0583681648        0.2384173097       -0.9448327225        0.8496118188
C        -1.4574020937       -2.0474235015        0.6458015225       -0.4167899489
         3
   CG Site                   X                   Y                   Z    Integral Charges
C        -2.4202873912        0.7084491817        1.9155925171        0.5700279474
C         1.1081369133        0.2385674000       -1.0052546906        0.8483450413
C        -1.4551162342       -2.0634809806        0.6565302482       -0.4183729887
         3
   CG Site                   X                   Y                   Z    Integral Charges
C        -2.4312046815        0.7402546138        1.9186639631        0.5727293491
C         1.1566887527        0.2375332036       -1.0637983456        0.8468841910
C        -1.4531955425       -2.0787221830        0.6670656876       -0.4196135104
